
Circuit: * simple rc filter

Error on line 4 : vin n0 0 ac tran 1v pulse (0 5v 1s 1s 1s 5s 12s)
 unknown parameter (tran) 
Doing analysis at TEMP = 27.000000 and TNOM = 27.000000


No. of Data Rows : 51

Initial Transient Solution
--------------------------

Node                                   Voltage
----                                   -------
n1                                           0
n0                                           0
vin#branch                                   0


No. of Data Rows : 59
                               * simple rc filter
                               Transient Analysis  Fri Dec 26 14:23:00  2014
--------------------------------------------------------------------------------
Index   time            v(n1)           
--------------------------------------------------------------------------------
0	0.000000e+00	0.000000e+00	
1	1.000000e-03	0.000000e+00	
2	2.000000e-03	0.000000e+00	
3	4.000000e-03	0.000000e+00	
4	8.000000e-03	0.000000e+00	
5	1.600000e-02	0.000000e+00	
6	3.200000e-02	0.000000e+00	
7	6.400000e-02	0.000000e+00	
8	1.280000e-01	0.000000e+00	
9	2.560000e-01	0.000000e+00	
10	4.560000e-01	0.000000e+00	
11	6.560000e-01	0.000000e+00	
12	8.560000e-01	0.000000e+00	
13	1.056000e+00	0.000000e+00	
14	1.256000e+00	0.000000e+00	
15	1.456000e+00	0.000000e+00	
16	1.656000e+00	0.000000e+00	
17	1.856000e+00	0.000000e+00	
18	2.056000e+00	0.000000e+00	
19	2.256000e+00	0.000000e+00	
20	2.456000e+00	0.000000e+00	
21	2.656000e+00	0.000000e+00	
22	2.856000e+00	0.000000e+00	
23	3.056000e+00	0.000000e+00	
24	3.256000e+00	0.000000e+00	
25	3.456000e+00	0.000000e+00	
26	3.656000e+00	0.000000e+00	
27	3.856000e+00	0.000000e+00	
28	4.056000e+00	0.000000e+00	
29	4.256000e+00	0.000000e+00	
30	4.456000e+00	0.000000e+00	
31	4.656000e+00	0.000000e+00	
32	4.856000e+00	0.000000e+00	
33	5.056000e+00	0.000000e+00	
34	5.256000e+00	0.000000e+00	
35	5.456000e+00	0.000000e+00	
36	5.656000e+00	0.000000e+00	
37	5.856000e+00	0.000000e+00	
38	6.056000e+00	0.000000e+00	
39	6.256000e+00	0.000000e+00	
40	6.456000e+00	0.000000e+00	
41	6.656000e+00	0.000000e+00	
42	6.856000e+00	0.000000e+00	
43	7.056000e+00	0.000000e+00	
44	7.256000e+00	0.000000e+00	
45	7.456000e+00	0.000000e+00	
46	7.656000e+00	0.000000e+00	
47	7.856000e+00	0.000000e+00	
48	8.056000e+00	0.000000e+00	
49	8.256000e+00	0.000000e+00	
50	8.456000e+00	0.000000e+00	
51	8.656000e+00	0.000000e+00	
52	8.856000e+00	0.000000e+00	
53	9.056000e+00	0.000000e+00	
54	9.256000e+00	0.000000e+00	

Index   time            v(n1)           
--------------------------------------------------------------------------------
55	9.456000e+00	0.000000e+00	
56	9.656000e+00	0.000000e+00	
57	9.856000e+00	0.000000e+00	
58	1.000000e+01	0.000000e+00	

                               * simple rc filter
                               AC Analysis  Fri Dec 26 14:23:00  2014
--------------------------------------------------------------------------------
Index   frequency       v(n1)                           
--------------------------------------------------------------------------------
0	1.000000e+00	1.000000e+00,	-6.28319e-05	
1	1.258925e+00	1.000000e+00,	-7.91006e-05	
2	1.584893e+00	1.000000e+00,	-9.95818e-05	
3	1.995262e+00	1.000000e+00,	-1.25366e-04	
4	2.511886e+00	1.000000e+00,	-1.57826e-04	
5	3.162278e+00	1.000000e+00,	-1.98692e-04	
6	3.981072e+00	9.999999e-01,	-2.50138e-04	
7	5.011872e+00	9.999999e-01,	-3.14905e-04	
8	6.309573e+00	9.999998e-01,	-3.96442e-04	
9	7.943282e+00	9.999998e-01,	-4.99091e-04	
10	1.000000e+01	9.999996e-01,	-6.28318e-04	
11	1.258925e+01	9.999994e-01,	-7.91006e-04	
12	1.584893e+01	9.999990e-01,	-9.95817e-04	
13	1.995262e+01	9.999984e-01,	-1.25366e-03	
14	2.511886e+01	9.999975e-01,	-1.57826e-03	
15	3.162278e+01	9.999961e-01,	-1.98691e-03	
16	3.981072e+01	9.999937e-01,	-2.50137e-03	
17	5.011872e+01	9.999901e-01,	-3.14902e-03	
18	6.309573e+01	9.999843e-01,	-3.96436e-03	
19	7.943282e+01	9.999751e-01,	-4.99079e-03	
20	1.000000e+02	9.999605e-01,	-6.28294e-03	
21	1.258925e+02	9.999374e-01,	-7.90957e-03	
22	1.584893e+02	9.999008e-01,	-9.95719e-03	
23	1.995262e+02	9.998429e-01,	-1.25346e-02	
24	2.511886e+02	9.997510e-01,	-1.57787e-02	
25	3.162278e+02	9.996054e-01,	-1.98613e-02	
26	3.981072e+02	9.993747e-01,	-2.49982e-02	
27	5.011872e+02	9.990093e-01,	-3.14593e-02	
28	6.309573e+02	9.984308e-01,	-3.95820e-02	
29	7.943282e+02	9.975153e-01,	-4.97851e-02	
30	1.000000e+03	9.960677e-01,	-6.25848e-02	
31	1.258925e+03	9.937820e-01,	-7.86088e-02	
32	1.584893e+03	9.901808e-01,	-9.86040e-02	
33	1.995262e+03	9.845265e-01,	-1.23426e-01	
34	2.511886e+03	9.756962e-01,	-1.53991e-01	
35	3.162278e+03	9.620209e-01,	-1.91146e-01	
36	3.981072e+03	9.411153e-01,	-2.35409e-01	
37	5.011872e+03	9.097813e-01,	-2.86495e-01	
38	6.309573e+03	8.641799e-01,	-3.42597e-01	
39	7.943282e+03	8.005816e-01,	-3.99563e-01	
40	1.000000e+04	7.169568e-01,	-4.50477e-01	
41	1.258925e+04	6.151231e-01,	-4.86566e-01	
42	1.584893e+04	5.020955e-01,	-4.99996e-01	
43	1.995262e+04	3.888533e-01,	-4.87490e-01	
44	2.511886e+04	2.864575e-01,	-4.52106e-01	
45	3.162278e+04	2.021083e-01,	-4.01573e-01	
46	3.981072e+04	1.377997e-01,	-3.44690e-01	
47	5.011872e+04	9.160420e-02,	-2.88466e-01	
48	6.309573e+04	5.982063e-02,	-2.37154e-01	
49	7.943282e+04	3.859633e-02,	-1.92631e-01	
50	1.000000e+05	2.470452e-02,	-1.55223e-01	

                               * simple rc filter
                               AC Analysis  Fri Dec 26 14:23:00  2014
--------------------------------------------------------------------------------
Index   frequency       db(v(n1))       
--------------------------------------------------------------------------------
0	1.000000e+00	-1.71453e-08	
1	1.258925e+00	-2.71734e-08	
2	1.584893e+00	-4.30669e-08	
3	1.995262e+00	-6.82565e-08	
4	2.511886e+00	-1.08179e-07	
5	3.162278e+00	-1.71453e-07	
6	3.981072e+00	-2.71734e-07	
7	5.011872e+00	-4.30669e-07	
8	6.309573e+00	-6.82565e-07	
9	7.943282e+00	-1.08179e-06	
10	1.000000e+01	-1.71453e-06	
11	1.258925e+01	-2.71734e-06	
12	1.584893e+01	-4.30669e-06	
13	1.995262e+01	-6.82565e-06	
14	2.511886e+01	-1.08179e-05	
15	3.162278e+01	-1.71452e-05	
16	3.981072e+01	-2.71733e-05	
17	5.011872e+01	-4.30667e-05	
18	6.309573e+01	-6.82560e-05	
19	7.943282e+01	-1.08178e-04	
20	1.000000e+02	-1.71449e-04	
21	1.258925e+02	-2.71726e-04	
22	1.584893e+02	-4.30648e-04	
23	1.995262e+02	-6.82511e-04	
24	2.511886e+02	-1.08166e-03	
25	3.162278e+02	-1.71419e-03	
26	3.981072e+02	-2.71649e-03	
27	5.011872e+02	-4.30456e-03	
28	6.309573e+02	-6.82029e-03	
29	7.943282e+02	-1.08045e-02	
30	1.000000e+03	-1.71115e-02	
31	1.258925e+03	-2.70887e-02	
32	1.584893e+03	-4.28548e-02	
33	1.995262e+03	-6.77257e-02	
34	2.511886e+03	-1.06854e-01	
35	3.162278e+03	-1.68155e-01	
36	3.981072e+03	-2.63572e-01	
37	5.011872e+03	-4.10630e-01	
38	6.309573e+03	-6.33958e-01	
39	7.943282e+03	-9.65944e-01	
40	1.000000e+04	-1.44507e+00	
41	1.258925e+04	-2.11038e+00	
42	1.584893e+04	-2.99214e+00	
43	1.995262e+04	-4.10214e+00	
44	2.511886e+04	-5.42940e+00	
45	3.162278e+04	-6.94416e+00	
46	3.981072e+04	-8.60752e+00	
47	5.011872e+04	-1.03808e+01	
48	6.309573e+04	-1.22315e+01	
49	7.943282e+04	-1.41345e+01	
50	1.000000e+05	-1.60722e+01	

elapsed time since last call: 0.015 seconds.

Total elapsed time: 0.015 seconds.

Total DRAM available = 490.046875 MB.
DRAM currently available = 13.976562 MB.
Total ngspice program size = 19.960938 MB.
Resident set size = 917.000 kB.
Shared ngspice pages = 675.000 kB.
Text (code) pages = 1.308594 MB.
Stack = 0 bytes.
Library pages = 6.018555 MB.

