
Circuit: * simple rc filter

Doing analysis at TEMP = 27.000000 and TNOM = 27.000000


No. of Data Rows : 81

Initial Transient Solution
--------------------------

Node                                   Voltage
----                                   -------
n1                                           0
n0                                           0
vin#branch                                   0


No. of Data Rows : 92
                               * simple rc filter
                               Transient Analysis  Mon Dec 29 01:33:33  2014
--------------------------------------------------------------------------------
Index   time            v(n1)           
--------------------------------------------------------------------------------
0	0.000000e+00	0.000000e+00	
1	1.000000e-03	0.000000e+00	
2	2.000000e-03	0.000000e+00	
3	4.000000e-03	0.000000e+00	
4	8.000000e-03	0.000000e+00	
5	1.600000e-02	0.000000e+00	
6	3.200000e-02	0.000000e+00	
7	6.400000e-02	0.000000e+00	
8	1.280000e-01	0.000000e+00	
9	2.560000e-01	0.000000e+00	
10	4.560000e-01	0.000000e+00	
11	6.560000e-01	0.000000e+00	
12	8.560000e-01	0.000000e+00	
13	1.000000e+00	0.000000e+00	
14	1.002050e+00	1.744316e-03	
15	1.006151e+00	8.127994e-03	
16	1.014352e+00	3.321409e-02	
17	1.030755e+00	1.049077e-01	
18	1.045730e+00	1.788134e-01	
19	1.075680e+00	3.283680e-01	
20	1.133846e+00	6.192477e-01	
21	1.250179e+00	1.200884e+00	
22	1.450179e+00	2.200904e+00	
23	1.650179e+00	3.200887e+00	
24	1.850179e+00	4.200901e+00	
25	2.000000e+00	4.949995e+00	
26	2.020000e+00	4.983332e+00	
27	2.060000e+00	5.005556e+00	
28	2.140000e+00	4.996666e+00	
29	2.300000e+00	5.002593e+00	
30	2.500000e+00	4.997879e+00	
31	2.700000e+00	5.001736e+00	
32	2.900000e+00	4.998580e+00	
33	3.100000e+00	5.001162e+00	
34	3.300000e+00	4.999049e+00	
35	3.500000e+00	5.000778e+00	
36	3.700000e+00	4.999364e+00	
37	3.900000e+00	5.000521e+00	
38	4.100000e+00	4.999574e+00	
39	4.300000e+00	5.000349e+00	
40	4.500000e+00	4.999715e+00	
41	4.700000e+00	5.000233e+00	
42	4.900000e+00	4.999809e+00	
43	5.100000e+00	5.000156e+00	
44	5.300000e+00	4.999872e+00	
45	5.500000e+00	5.000105e+00	
46	5.700000e+00	4.999914e+00	
47	5.900000e+00	5.000070e+00	
48	6.100000e+00	4.999943e+00	
49	6.300000e+00	5.000047e+00	
50	6.500000e+00	4.999962e+00	
51	6.700000e+00	5.000031e+00	
52	6.900000e+00	4.999974e+00	
53	7.000000e+00	5.000017e+00	
54	7.020000e+00	4.933339e+00	

Index   time            v(n1)           
--------------------------------------------------------------------------------
55	7.060000e+00	4.755554e+00	
56	7.140000e+00	4.346668e+00	
57	7.300000e+00	3.552592e+00	
58	7.500000e+00	2.547880e+00	
59	7.700000e+00	1.551735e+00	
60	7.900000e+00	5.485805e-01	
61	8.000000e+00	5.094633e-02	
62	8.002611e+00	4.039690e-02	
63	8.007834e+00	2.366696e-02	
64	8.018280e+00	7.426945e-03	
65	8.024110e+00	4.074197e-03	
66	8.029472e+00	2.351484e-03	
67	8.035540e+00	1.256823e-03	
68	8.042908e+00	5.800691e-04	
69	8.049762e+00	2.839612e-04	
70	8.056506e+00	1.407578e-04	
71	8.062916e+00	7.242815e-05	
72	8.069660e+00	3.589865e-05	
73	8.076314e+00	1.797664e-05	
74	8.083093e+00	8.874990e-06	
75	8.089890e+00	4.372591e-06	
76	8.097860e+00	1.880605e-06	
77	8.107783e+00	6.333382e-07	
78	8.121429e+00	1.196091e-07	
79	8.141914e+00	-1.43338e-09	
80	8.178446e+00	4.191683e-10	
81	8.251509e+00	-2.39004e-10	
82	8.397636e+00	1.814565e-10	
83	8.597636e+00	-1.48464e-10	
84	8.797636e+00	1.214709e-10	
85	8.997636e+00	-9.93853e-11	
86	9.197636e+00	8.131523e-11	
87	9.397636e+00	-6.65306e-11	
88	9.597636e+00	5.443417e-11	
89	9.797636e+00	-4.45370e-11	
90	9.997636e+00	3.643940e-11	
91	1.000000e+01	2.873674e-11	

                               * simple rc filter
                               AC Analysis  Mon Dec 29 01:33:33  2014
--------------------------------------------------------------------------------
Index   frequency       v(n1)                           
--------------------------------------------------------------------------------
0	1.000000e+00	9.960677e-01,	-6.25848e-02	
1	1.258925e+00	9.937820e-01,	-7.86088e-02	
2	1.584893e+00	9.901808e-01,	-9.86040e-02	
3	1.995262e+00	9.845265e-01,	-1.23426e-01	
4	2.511886e+00	9.756962e-01,	-1.53991e-01	
5	3.162278e+00	9.620209e-01,	-1.91146e-01	
6	3.981072e+00	9.411153e-01,	-2.35409e-01	
7	5.011872e+00	9.097813e-01,	-2.86495e-01	
8	6.309573e+00	8.641799e-01,	-3.42597e-01	
9	7.943282e+00	8.005816e-01,	-3.99563e-01	
10	1.000000e+01	7.169568e-01,	-4.50477e-01	
11	1.258925e+01	6.151231e-01,	-4.86566e-01	
12	1.584893e+01	5.020955e-01,	-4.99996e-01	
13	1.995262e+01	3.888533e-01,	-4.87490e-01	
14	2.511886e+01	2.864575e-01,	-4.52106e-01	
15	3.162278e+01	2.021083e-01,	-4.01573e-01	
16	3.981072e+01	1.377997e-01,	-3.44690e-01	
17	5.011872e+01	9.160420e-02,	-2.88466e-01	
18	6.309573e+01	5.982063e-02,	-2.37154e-01	
19	7.943282e+01	3.859633e-02,	-1.92631e-01	
20	1.000000e+02	2.470452e-02,	-1.55223e-01	
21	1.258925e+02	1.573092e-02,	-1.24433e-01	
22	1.584893e+02	9.983497e-03,	-9.94174e-02	
23	1.995262e+02	6.322455e-03,	-7.92621e-02	
24	2.511886e+02	3.998529e-03,	-6.31074e-02	
25	3.162278e+02	2.526630e-03,	-5.02020e-02	
26	3.981072e+02	1.595683e-03,	-3.99141e-02	
27	5.011872e+02	1.007401e-03,	-3.17236e-02	
28	6.309573e+02	6.358637e-04,	-2.52083e-02	
29	7.943282e+02	4.012970e-04,	-2.00284e-02	
30	1.000000e+03	2.532388e-04,	-1.59115e-02	
31	1.258925e+03	1.597978e-04,	-1.26401e-02	
32	1.584893e+03	1.008316e-04,	-1.00410e-02	
33	1.995262e+03	6.362278e-05,	-7.97614e-03	
34	2.511886e+03	4.014420e-05,	-6.33582e-03	
35	3.162278e+03	2.532965e-05,	-5.03279e-03	
36	3.981072e+03	1.598208e-05,	-3.99773e-03	
37	5.011872e+03	1.008407e-05,	-3.17553e-03	
38	6.309573e+03	6.362642e-06,	-2.52242e-03	
39	7.943282e+03	4.014565e-06,	-2.00363e-03	
40	1.000000e+04	2.533023e-06,	-1.59155e-03	
41	1.258925e+04	1.598231e-06,	-1.26421e-03	
42	1.584893e+04	1.008416e-06,	-1.00420e-03	
43	1.995262e+04	6.362679e-07,	-7.97664e-04	
44	2.511886e+04	4.014580e-07,	-6.33607e-04	
45	3.162278e+04	2.533029e-07,	-5.03292e-04	
46	3.981072e+04	1.598233e-07,	-3.99779e-04	
47	5.011872e+04	1.008417e-07,	-3.17556e-04	
48	6.309573e+04	6.362682e-08,	-2.52244e-04	
49	7.943282e+04	4.014581e-08,	-2.00364e-04	
50	1.000000e+05	2.533030e-08,	-1.59155e-04	
51	1.258925e+05	1.598234e-08,	-1.26421e-04	
52	1.584893e+05	1.008417e-08,	-1.00420e-04	
53	1.995262e+05	6.362683e-09,	-7.97664e-05	
54	2.511886e+05	4.014581e-09,	-6.33607e-05	

Index   frequency       v(n1)                           
--------------------------------------------------------------------------------
55	3.162278e+05	2.533030e-09,	-5.03292e-05	
56	3.981072e+05	1.598234e-09,	-3.99779e-05	
57	5.011872e+05	1.008417e-09,	-3.17556e-05	
58	6.309573e+05	6.362683e-10,	-2.52244e-05	
59	7.943282e+05	4.014581e-10,	-2.00364e-05	
60	1.000000e+06	2.533030e-10,	-1.59155e-05	
61	1.258925e+06	1.598234e-10,	-1.26421e-05	
62	1.584893e+06	1.008417e-10,	-1.00420e-05	
63	1.995262e+06	6.362683e-11,	-7.97664e-06	
64	2.511886e+06	4.014581e-11,	-6.33607e-06	
65	3.162278e+06	2.533030e-11,	-5.03292e-06	
66	3.981072e+06	1.598234e-11,	-3.99779e-06	
67	5.011872e+06	1.008417e-11,	-3.17556e-06	
68	6.309573e+06	6.362683e-12,	-2.52244e-06	
69	7.943282e+06	4.014581e-12,	-2.00364e-06	
70	1.000000e+07	2.533030e-12,	-1.59155e-06	
71	1.258925e+07	1.598234e-12,	-1.26421e-06	
72	1.584893e+07	1.008417e-12,	-1.00420e-06	
73	1.995262e+07	6.362683e-13,	-7.97664e-07	
74	2.511886e+07	4.014581e-13,	-6.33607e-07	
75	3.162278e+07	2.533030e-13,	-5.03292e-07	
76	3.981072e+07	1.598234e-13,	-3.99779e-07	
77	5.011872e+07	1.008417e-13,	-3.17556e-07	
78	6.309573e+07	6.362683e-14,	-2.52244e-07	
79	7.943282e+07	4.014581e-14,	-2.00364e-07	
80	1.000000e+08	2.533030e-14,	-1.59155e-07	

                               * simple rc filter
                               AC Analysis  Mon Dec 29 01:33:33  2014
--------------------------------------------------------------------------------
Index   frequency       db(v(n1))       
--------------------------------------------------------------------------------
0	1.000000e+00	-1.71115e-02	
1	1.258925e+00	-2.70887e-02	
2	1.584893e+00	-4.28548e-02	
3	1.995262e+00	-6.77257e-02	
4	2.511886e+00	-1.06854e-01	
5	3.162278e+00	-1.68155e-01	
6	3.981072e+00	-2.63572e-01	
7	5.011872e+00	-4.10630e-01	
8	6.309573e+00	-6.33958e-01	
9	7.943282e+00	-9.65944e-01	
10	1.000000e+01	-1.44507e+00	
11	1.258925e+01	-2.11038e+00	
12	1.584893e+01	-2.99214e+00	
13	1.995262e+01	-4.10214e+00	
14	2.511886e+01	-5.42940e+00	
15	3.162278e+01	-6.94416e+00	
16	3.981072e+01	-8.60752e+00	
17	5.011872e+01	-1.03808e+01	
18	6.309573e+01	-1.22315e+01	
19	7.943282e+01	-1.41345e+01	
20	1.000000e+02	-1.60722e+01	
21	1.258925e+02	-1.80325e+01	
22	1.584893e+02	-2.00072e+01	
23	1.995262e+02	-2.19911e+01	
24	2.511886e+02	-2.39810e+01	
25	3.162278e+02	-2.59746e+01	
26	3.981072e+02	-2.79705e+01	
27	5.011872e+02	-2.99680e+01	
28	6.309573e+02	-3.19664e+01	
29	7.943282e+02	-3.39653e+01	
30	1.000000e+03	-3.59647e+01	
31	1.258925e+03	-3.79643e+01	
32	1.584893e+03	-3.99640e+01	
33	1.995262e+03	-4.19639e+01	
34	2.511886e+03	-4.39638e+01	
35	3.162278e+03	-4.59637e+01	
36	3.981072e+03	-4.79637e+01	
37	5.011872e+03	-4.99636e+01	
38	6.309573e+03	-5.19636e+01	
39	7.943282e+03	-5.39636e+01	
40	1.000000e+04	-5.59636e+01	
41	1.258925e+04	-5.79636e+01	
42	1.584893e+04	-5.99636e+01	
43	1.995262e+04	-6.19636e+01	
44	2.511886e+04	-6.39636e+01	
45	3.162278e+04	-6.59636e+01	
46	3.981072e+04	-6.79636e+01	
47	5.011872e+04	-6.99636e+01	
48	6.309573e+04	-7.19636e+01	
49	7.943282e+04	-7.39636e+01	
50	1.000000e+05	-7.59636e+01	
51	1.258925e+05	-7.79636e+01	
52	1.584893e+05	-7.99636e+01	
53	1.995262e+05	-8.19636e+01	
54	2.511886e+05	-8.39636e+01	

Index   frequency       db(v(n1))       
--------------------------------------------------------------------------------
55	3.162278e+05	-8.59636e+01	
56	3.981072e+05	-8.79636e+01	
57	5.011872e+05	-8.99636e+01	
58	6.309573e+05	-9.19636e+01	
59	7.943282e+05	-9.39636e+01	
60	1.000000e+06	-9.59636e+01	
61	1.258925e+06	-9.79636e+01	
62	1.584893e+06	-9.99636e+01	
63	1.995262e+06	-1.01964e+02	
64	2.511886e+06	-1.03964e+02	
65	3.162278e+06	-1.05964e+02	
66	3.981072e+06	-1.07964e+02	
67	5.011872e+06	-1.09964e+02	
68	6.309573e+06	-1.11964e+02	
69	7.943282e+06	-1.13964e+02	
70	1.000000e+07	-1.15964e+02	
71	1.258925e+07	-1.17964e+02	
72	1.584893e+07	-1.19964e+02	
73	1.995262e+07	-1.21964e+02	
74	2.511886e+07	-1.23964e+02	
75	3.162278e+07	-1.25964e+02	
76	3.981072e+07	-1.27964e+02	
77	5.011872e+07	-1.29964e+02	
78	6.309573e+07	-1.31964e+02	
79	7.943282e+07	-1.33964e+02	
80	1.000000e+08	-1.35964e+02	

elapsed time since last call: 0.014 seconds.

Total elapsed time: 0.014 seconds.

Total DRAM available = 490.046875 MB.
DRAM currently available = 36.968750 MB.
Total ngspice program size = 19.960938 MB.
Resident set size = 916.000 kB.
Shared ngspice pages = 673.000 kB.
Text (code) pages = 1.308594 MB.
Stack = 0 bytes.
Library pages = 6.018555 MB.

