
Circuit: * simple circuit

Doing analysis at TEMP = 27.000000 and TNOM = 27.000000


No. of Data Rows : 1
Doing analysis at TEMP = 27.000000 and TNOM = 27.000000


No. of Data Rows : 51

Initial Transient Solution
--------------------------

Node                                   Voltage
----                                   -------
1                                            0
2                                            0
v1#branch                                    0


No. of Data Rows : 102
	Node                                  Voltage
	----                                  -------
	----	-------
	V(2)                             0.000000e+00
	V(1)                             0.000000e+00

	Source	Current
	------	-------

	v1#branch                        0.000000e+00

 Capacitor models (Fixed capacitor)
      model                     C

        cap                     0
         cj                     0
       cjsw                     0
       defw                 1e-05
       defl                     0
     narrow                     0
      short                     0
        tc1                     0
        tc2                     0
         di                     0
      thick                     0

 Resistor models (Simple linear resistor)
      model                     R

        rsh                     0
     narrow                     0
      short                     0
        tc1                     0
        tc2                     0
       defw                 1e-05
         kf                     0
         af                     0

 Capacitor: Fixed capacitor
     device                    c2
      model                     C
capacitance                 0.001
        cap                 0.001
          c                 0.001
      dtemp                     0
          i          -6.67357e-14
          p          -5.34438e-27

 Resistor: Simple linear resistor
     device                    r2                    r1
      model                     R                     R
 resistance                     3                     2
         ac                     3                     2
      dtemp                     0                     0
      noisy                     1                     1
          i           2.66943e-14          -4.00414e-14
          p           2.13775e-27           3.20663e-27

 Vsource: Independent voltage source
     device                    v1
         dc                     0
      acmag                     1
      pulse                     0
                                5
                                1
                                1
                                1
                                5
                               12
       sine                     0
                                5
                                1
                                1
                                1
                                5
                               12
        sin                     0
                                5
                                1
                                1
                                1
                                5
                               12
        exp                     0
                                5
                                1
                                1
                                1
                                5
                               12
        pwl                     0
                                5
                                1
                                1
                                1
                                5
                               12
       sffm                     0
                                5
                                1
                                1
                                1
                                5
                               12
         am                     0
                                5
                                1
                                1
                                1
                                5
                               12
    trnoise                     0
                                5
                                1
                                1
                                1
                                5
                               12
   trrandom                     0
                                5
                                1
                                1
                                1
                                5
                               12
          i           4.00414e-14
          p                    -0

                                * simple circuit
                                Transient Analysis  Wed Dec 24 19:29:30  2014
--------------------------------------------------------------------------------
Index   time            v1#branch       
--------------------------------------------------------------------------------
0	0.000000e+00	0.000000e+00	
1	1.300000e-03	0.000000e+00	
2	2.600000e-03	0.000000e+00	
3	5.200000e-03	0.000000e+00	
4	1.040000e-02	0.000000e+00	
5	2.080000e-02	0.000000e+00	
6	4.160000e-02	0.000000e+00	
7	8.320000e-02	0.000000e+00	
8	1.664000e-01	0.000000e+00	
9	3.328000e-01	0.000000e+00	
10	5.928000e-01	0.000000e+00	
11	8.528000e-01	0.000000e+00	
12	1.000000e+00	0.000000e+00	
13	1.002095e+00	-3.23916e-03	
14	1.006284e+00	-8.26228e-03	
15	1.014663e+00	-1.63645e-02	
16	1.023665e+00	-2.55225e-02	
17	1.041471e+00	-4.32275e-02	
18	1.077083e+00	-7.89207e-02	
19	1.148306e+00	-1.50070e-01	
20	1.290752e+00	-2.92586e-01	
21	1.550752e+00	-5.52518e-01	
22	1.810752e+00	-8.12585e-01	
23	2.000000e+00	-1.00177e+00	
24	2.026000e+00	-1.00008e+00	
25	2.078000e+00	-9.99929e-01	
26	2.182000e+00	-1.00007e+00	
27	2.390000e+00	-9.99934e-01	
28	2.650000e+00	-1.00007e+00	
29	2.910000e+00	-9.99936e-01	
30	3.170000e+00	-1.00006e+00	
31	3.430000e+00	-9.99938e-01	
32	3.690000e+00	-1.00006e+00	
33	3.950000e+00	-9.99941e-01	
34	4.210000e+00	-1.00006e+00	
35	4.470000e+00	-9.99943e-01	
36	4.730000e+00	-1.00006e+00	
37	4.990000e+00	-9.99945e-01	
38	5.250000e+00	-1.00005e+00	
39	5.510000e+00	-9.99947e-01	
40	5.770000e+00	-1.00005e+00	
41	6.030000e+00	-9.99949e-01	
42	6.290000e+00	-1.00005e+00	
43	6.550000e+00	-9.99951e-01	
44	6.810000e+00	-1.00005e+00	
45	7.000000e+00	-9.99953e-01	
46	7.026000e+00	-9.72277e-01	
47	7.078000e+00	-9.20129e-01	
48	7.182000e+00	-8.16267e-01	
49	7.390000e+00	-6.08134e-01	
50	7.650000e+00	-3.48265e-01	
51	7.910000e+00	-8.81366e-02	
52	8.000000e+00	1.739891e-03	
53	8.001638e+00	7.356504e-04	
54	8.004914e+00	-1.13564e-04	

Index   time            v1#branch       
--------------------------------------------------------------------------------
55	8.006370e+00	-2.78318e-05	
56	8.006806e+00	-1.92747e-05	
57	8.007367e+00	-1.19698e-05	
58	8.008074e+00	-6.52075e-06	
59	8.008879e+00	-3.24556e-06	
60	8.009673e+00	-1.63120e-06	
61	8.010510e+00	-7.87715e-07	
62	8.011296e+00	-3.99153e-07	
63	8.012104e+00	-1.97988e-07	
64	8.012893e+00	-1.00085e-07	
65	8.013705e+00	-4.94458e-08	
66	8.014501e+00	-2.48262e-08	
67	8.015309e+00	-1.23190e-08	
68	8.016105e+00	-6.18477e-09	
69	8.016911e+00	-3.07494e-09	
70	8.017709e+00	-1.54021e-09	
71	8.018514e+00	-7.66479e-10	
72	8.019313e+00	-3.83584e-10	
73	8.020189e+00	-1.78473e-10	
74	8.021241e+00	-6.96634e-11	
75	8.022618e+00	-1.88823e-11	
76	8.024574e+00	-1.92074e-12	
77	8.027744e+00	2.654517e-13	
78	8.034040e+00	-1.18931e-13	
79	8.046633e+00	8.085384e-14	
80	8.071817e+00	-6.67845e-14	
81	8.122187e+00	6.070967e-14	
82	8.222926e+00	-5.78843e-14	
83	8.424403e+00	5.652149e-14	
84	8.684403e+00	-5.54876e-14	
85	8.944403e+00	5.447255e-14	
86	9.204403e+00	-5.34761e-14	
87	9.464403e+00	5.249788e-14	
88	9.724403e+00	-5.15375e-14	
89	9.984403e+00	5.059479e-14	
90	1.024440e+01	-4.96693e-14	
91	1.050440e+01	4.876069e-14	
92	1.076440e+01	-4.78687e-14	
93	1.102440e+01	4.699308e-14	
94	1.128440e+01	-4.61334e-14	
95	1.154440e+01	4.528954e-14	
96	1.180440e+01	-4.44611e-14	
97	1.206440e+01	4.364777e-14	
98	1.232440e+01	-4.28493e-14	
99	1.258440e+01	4.206550e-14	
100	1.284440e+01	-4.12960e-14	
101	1.300000e+01	4.004142e-14	

                                * simple circuit
                                AC Analysis  Wed Dec 24 19:29:30  2014
--------------------------------------------------------------------------------
Index   frequency       v(2)                            
--------------------------------------------------------------------------------
0	1.000000e+00	5.999659e-01,	-4.52364e-03	
1	1.258925e+00	5.999459e-01,	-5.69473e-03	
2	1.584893e+00	5.999143e-01,	-7.16886e-03	
3	1.995262e+00	5.998642e-01,	-9.02431e-03	
4	2.511886e+00	5.997849e-01,	-1.13594e-02	
5	3.162278e+00	5.996591e-01,	-1.42977e-02	
6	3.981072e+00	5.994599e-01,	-1.79937e-02	
7	5.011872e+00	5.991444e-01,	-2.26408e-02	
8	6.309573e+00	5.986451e-01,	-2.84794e-02	
9	7.943282e+00	5.978555e-01,	-3.58061e-02	
10	1.000000e+01	5.966083e-01,	-4.49832e-02	
11	1.258925e+01	5.946423e-01,	-5.64439e-02	
12	1.584893e+01	5.915527e-01,	-7.06894e-02	
13	1.995262e+01	5.867213e-01,	-8.82659e-02	
14	2.511886e+01	5.792237e-01,	-1.09700e-01	
15	3.162278e+01	5.677254e-01,	-1.35363e-01	
16	3.981072e+01	5.504085e-01,	-1.65214e-01	
17	5.011872e+01	5.250272e-01,	-1.98401e-01	
18	6.309573e+01	4.892689e-01,	-2.32760e-01	
19	7.943282e+01	4.416010e-01,	-2.64479e-01	
20	1.000000e+02	3.825337e-01,	-2.88424e-01	
21	1.258925e+02	3.156242e-01,	-2.99593e-01	
22	1.584893e+02	2.471190e-01,	-2.95303e-01	
23	1.995262e+02	1.838688e-01,	-2.76611e-01	
24	2.511886e+02	1.308066e-01,	-2.47737e-01	
25	3.162278e+02	8.975463e-02,	-2.14002e-01	
26	3.981072e+02	5.994038e-02,	-1.79920e-01	
27	5.011872e+02	3.926752e-02,	-1.48387e-01	
28	6.309573e+02	2.538934e-02,	-1.20785e-01	
29	7.943282e+02	1.627373e-02,	-9.74649e-02	
30	1.000000e+03	1.037184e-02,	-7.82019e-02	
31	1.258925e+03	6.586207e-03,	-6.25168e-02	
32	1.584893e+03	4.172519e-03,	-4.98608e-02	
33	1.995262e+03	2.639455e-03,	-3.97078e-02	
34	2.511886e+03	1.668092e-03,	-3.15923e-02	
35	3.162278e+03	1.053576e-03,	-2.51204e-02	
36	3.981072e+03	6.651924e-04,	-1.99668e-02	
37	5.011872e+03	4.198798e-04,	-1.58667e-02	
38	6.309573e+03	2.649947e-04,	-1.26066e-02	
39	7.943282e+03	1.672276e-04,	-1.00154e-02	
40	1.000000e+04	1.055243e-04,	-7.95635e-03	
41	1.258925e+04	6.658568e-05,	-6.32036e-03	
42	1.584893e+04	4.201444e-05,	-5.02065e-03	
43	1.995262e+04	2.651001e-05,	-3.98815e-03	
44	2.511886e+04	1.672696e-05,	-3.16795e-03	
45	3.162278e+04	1.055410e-05,	-2.51642e-03	
46	3.981072e+04	6.659233e-06,	-1.99887e-03	
47	5.011872e+04	4.201709e-06,	-1.58777e-03	
48	6.309573e+04	2.651106e-06,	-1.26121e-03	
49	7.943282e+04	1.672738e-06,	-1.00182e-03	
50	1.000000e+05	1.055427e-06,	-7.95773e-04	

elapsed time since last call: 0.015 seconds.

Total elapsed time: 0.015 seconds.

Total DRAM available = 490.046875 MB.
DRAM currently available = 16.457031 MB.
Total ngspice program size = 19.960938 MB.
Resident set size = 921.000 kB.
Shared ngspice pages = 678.000 kB.
Text (code) pages = 1.308594 MB.
Stack = 0 bytes.
Library pages = 6.018555 MB.

